*SPEF "ieee 1481-1999"
*DESIGN "parity_calculator"
*DATE "11:11:11 Fri 11 11, 1111"
*VENDOR "OpenRCX"
*PROGRAM "Parallel Extraction"
*VERSION "1.0"
*DESIGN_FLOW "NAME_SCOPE LOCAL" "PIN_CAP NONE"
*DIVIDER /
*DELIMITER :
*BUS_DELIMITER []
*T_UNIT 1 NS
*C_UNIT 1 PF
*R_UNIT 1 OHM
*L_UNIT 1 HENRY

*NAME_MAP
*1 data_to_register_i[0]
*2 data_to_register_i[10]
*3 data_to_register_i[11]
*4 data_to_register_i[12]
*5 data_to_register_i[13]
*6 data_to_register_i[14]
*7 data_to_register_i[15]
*8 data_to_register_i[16]
*9 data_to_register_i[17]
*10 data_to_register_i[18]
*11 data_to_register_i[19]
*12 data_to_register_i[1]
*13 data_to_register_i[20]
*14 data_to_register_i[21]
*15 data_to_register_i[22]
*16 data_to_register_i[23]
*17 data_to_register_i[24]
*18 data_to_register_i[25]
*19 data_to_register_i[26]
*20 data_to_register_i[27]
*21 data_to_register_i[28]
*22 data_to_register_i[29]
*23 data_to_register_i[2]
*24 data_to_register_i[30]
*25 data_to_register_i[31]
*26 data_to_register_i[3]
*27 data_to_register_i[4]
*28 data_to_register_i[5]
*29 data_to_register_i[6]
*30 data_to_register_i[7]
*31 data_to_register_i[8]
*32 data_to_register_i[9]
*33 data_to_register_o[0]
*34 data_to_register_o[10]
*35 data_to_register_o[11]
*36 data_to_register_o[12]
*37 data_to_register_o[13]
*38 data_to_register_o[14]
*39 data_to_register_o[15]
*40 data_to_register_o[16]
*41 data_to_register_o[17]
*42 data_to_register_o[18]
*43 data_to_register_o[19]
*44 data_to_register_o[1]
*45 data_to_register_o[20]
*46 data_to_register_o[21]
*47 data_to_register_o[22]
*48 data_to_register_o[23]
*49 data_to_register_o[24]
*50 data_to_register_o[25]
*51 data_to_register_o[26]
*52 data_to_register_o[27]
*53 data_to_register_o[28]
*54 data_to_register_o[29]
*55 data_to_register_o[2]
*56 data_to_register_o[30]
*57 data_to_register_o[31]
*58 data_to_register_o[32]
*59 data_to_register_o[33]
*60 data_to_register_o[34]
*61 data_to_register_o[35]
*62 data_to_register_o[36]
*63 data_to_register_o[37]
*64 data_to_register_o[38]
*65 data_to_register_o[3]
*66 data_to_register_o[4]
*67 data_to_register_o[5]
*68 data_to_register_o[6]
*69 data_to_register_o[7]
*70 data_to_register_o[8]
*71 data_to_register_o[9]
*72 operate_i
*73 operation_type_i[0]
*74 operation_type_i[1]
*75 operation_type_i[2]
*78 _000_
*79 _001_
*80 _002_
*81 _003_
*82 _004_
*83 _005_
*84 _006_
*85 _007_
*86 _008_
*87 _009_
*88 _010_
*89 _011_
*90 _012_
*91 _013_
*92 _014_
*93 _015_
*94 _016_
*95 _017_
*96 _018_
*97 _019_
*98 _020_
*99 _021_
*100 _022_
*101 _023_
*102 _024_
*103 _025_
*104 _026_
*105 _027_
*106 _028_
*107 _029_
*108 _030_
*109 _031_
*110 _032_
*111 _033_
*112 _034_
*113 _035_
*114 _036_
*115 _037_
*116 _038_
*117 _039_
*118 _040_
*119 _041_
*120 _042_
*121 _043_
*122 _044_
*123 _045_
*124 _046_
*125 _047_
*126 _048_
*127 _049_
*128 _050_
*129 _051_
*130 _052_
*131 _053_
*132 _054_
*133 _055_
*134 _056_
*135 _057_
*136 _058_
*137 _059_
*138 _060_
*139 _061_
*140 _062_
*141 _063_
*142 _064_
*143 _065_
*144 _066_
*145 _067_
*146 _068_
*147 _069_
*148 _070_
*149 _071_
*150 _072_
*151 _073_
*152 _074_
*153 _075_
*154 _076_
*155 _077_
*156 _078_
*157 _079_
*158 _080_
*159 _081_
*160 _082_
*161 _083_
*162 _084_
*163 _085_
*164 _086_
*165 _087_
*166 _088_
*167 _089_
*168 _090_
*169 _091_
*170 _092_
*171 _093_
*172 _094_
*173 _095_
*174 _096_
*175 _097_
*176 _098_
*177 _099_
*178 _100_
*179 _101_
*180 _102_
*181 _103_
*182 _104_
*183 _105_
*184 _106_
*185 _107_
*186 _108_
*187 _109_
*188 _110_
*189 _111_
*190 _112_
*191 _113_
*192 _114_
*193 _115_
*194 _116_
*195 _117_
*196 _118_
*197 _119_
*198 _120_
*199 _121_
*200 _122_
*201 _123_
*202 _124_
*203 _125_
*204 _126_
*205 _127_
*206 _128_
*207 _129_
*208 _130_
*209 net1
*210 net10
*211 net11
*212 net12
*213 net13
*214 net14
*215 net15
*216 net16
*217 net17
*218 net18
*219 net19
*220 net2
*221 net20
*222 net21
*223 net22
*224 net23
*225 net24
*226 net25
*227 net26
*228 net27
*229 net28
*230 net29
*231 net3
*232 net30
*233 net31
*234 net32
*235 net33
*236 net34
*237 net35
*238 net36
*239 net37
*240 net38
*241 net39
*242 net4
*243 net40
*244 net41
*245 net42
*246 net43
*247 net44
*248 net45
*249 net46
*250 net47
*251 net48
*252 net49
*253 net5
*254 net50
*255 net51
*256 net52
*257 net53
*258 net54
*259 net55
*260 net56
*261 net57
*262 net58
*263 net59
*264 net6
*265 net60
*266 net61
*267 net62
*268 net63
*269 net64
*270 net65
*271 net66
*272 net67
*273 net68
*274 net69
*275 net7
*276 net70
*277 net71
*278 net72
*279 net73
*280 net74
*281 net8
*282 net9
*283 ANTENNA__131__I
*284 ANTENNA__132__A1
*285 ANTENNA__132__A2
*286 ANTENNA__134__I
*287 ANTENNA__136__A1
*288 ANTENNA__136__A2
*289 ANTENNA__137__I
*290 ANTENNA__138__A1
*291 ANTENNA__138__A2
*292 ANTENNA__139__A1
*293 ANTENNA__139__A2
*294 ANTENNA__140__I
*295 ANTENNA__141__A1
*296 ANTENNA__141__A2
*297 ANTENNA__141__A3
*298 ANTENNA__142__A1
*299 ANTENNA__142__A2
*300 ANTENNA__144__I
*301 ANTENNA__145__I
*302 ANTENNA__146__A1
*303 ANTENNA__146__A2
*304 ANTENNA__147__A1
*305 ANTENNA__147__A2
*306 ANTENNA__148__I
*307 ANTENNA__149__A1
*308 ANTENNA__149__A2
*309 ANTENNA__149__A3
*310 ANTENNA__150__A1
*311 ANTENNA__150__A2
*312 ANTENNA__151__A1
*313 ANTENNA__153__B2
*314 ANTENNA__154__I
*315 ANTENNA__155__I
*316 ANTENNA__156__I
*317 ANTENNA__157__A1
*318 ANTENNA__157__A2
*319 ANTENNA__157__A3
*320 ANTENNA__158__A1
*321 ANTENNA__158__A2
*322 ANTENNA__159__I
*323 ANTENNA__160__A1
*324 ANTENNA__160__A2
*325 ANTENNA__161__A1
*326 ANTENNA__161__A2
*327 ANTENNA__162__A1
*328 ANTENNA__162__A2
*329 ANTENNA__163__I
*330 ANTENNA__164__A1
*331 ANTENNA__164__A2
*332 ANTENNA__165__I
*333 ANTENNA__166__I
*334 ANTENNA__167__A1
*335 ANTENNA__167__A2
*336 ANTENNA__171__I
*337 ANTENNA__172__I
*338 ANTENNA__173__I
*339 ANTENNA__174__A1
*340 ANTENNA__175__A2
*341 ANTENNA__176__I
*342 ANTENNA__177__A1
*343 ANTENNA__177__A2
*344 ANTENNA__178__A1
*345 ANTENNA__178__A2
*346 ANTENNA__179__A1
*347 ANTENNA__179__A2
*348 ANTENNA__179__A3
*349 ANTENNA__181__A1
*350 ANTENNA__181__A2
*351 ANTENNA__182__I
*352 ANTENNA__183__A1
*353 ANTENNA__183__A2
*354 ANTENNA__186__B2
*355 ANTENNA__187__A1
*356 ANTENNA__188__A2
*357 ANTENNA__191__I0
*358 ANTENNA__191__I1
*359 ANTENNA__192__I
*360 ANTENNA__193__A1
*361 ANTENNA__194__A2
*362 ANTENNA__195__I
*363 ANTENNA__197__A1
*364 ANTENNA__197__A2
*365 ANTENNA__198__A1
*366 ANTENNA__198__A2
*367 ANTENNA__198__A3
*368 ANTENNA__199__A1
*369 ANTENNA__199__A2
*370 ANTENNA__201__A1
*371 ANTENNA__201__A2
*372 ANTENNA__201__A3
*373 ANTENNA__202__I
*374 ANTENNA__203__A1
*375 ANTENNA__203__A2
*376 ANTENNA__204__A2
*377 ANTENNA__205__A1
*378 ANTENNA__206__A1
*379 ANTENNA__206__A2
*380 ANTENNA__206__B1
*381 ANTENNA__207__I0
*382 ANTENNA__207__I1
*383 ANTENNA__208__I
*384 ANTENNA__210__I0
*385 ANTENNA__210__I1
*386 ANTENNA__210__S
*387 ANTENNA__212__I0
*388 ANTENNA__212__I1
*389 ANTENNA__212__S
*390 ANTENNA__214__A1
*391 ANTENNA__215__A1
*392 ANTENNA__215__A2
*393 ANTENNA__216__I0
*394 ANTENNA__216__I1
*395 ANTENNA__216__S
*396 ANTENNA__217__I
*397 ANTENNA__218__I0
*398 ANTENNA__218__I1
*399 ANTENNA__218__S
*400 ANTENNA__221__I0
*401 ANTENNA__221__I1
*402 ANTENNA__221__S
*403 ANTENNA__222__I
*404 ANTENNA__223__I
*405 ANTENNA__224__A1
*406 ANTENNA__224__A2
*407 ANTENNA__225__A1
*408 ANTENNA__225__A2
*409 ANTENNA__227__I
*410 ANTENNA__228__A1
*411 ANTENNA__228__A2
*412 ANTENNA__229__A1
*413 ANTENNA__229__A2
*414 ANTENNA__231__A1
*415 ANTENNA__233__A1
*416 ANTENNA__233__A2
*417 ANTENNA__233__B1
*418 ANTENNA__234__I0
*419 ANTENNA__234__I1
*420 ANTENNA__234__S
*421 ANTENNA__236__I0
*422 ANTENNA__236__I1
*423 ANTENNA__236__S
*424 ANTENNA__237__I
*425 ANTENNA__238__I0
*426 ANTENNA__238__I1
*427 ANTENNA__238__S
*428 ANTENNA__241__I0
*429 ANTENNA__241__I1
*430 ANTENNA__241__S
*431 ANTENNA__242__I
*432 ANTENNA__243__A1
*433 ANTENNA__244__A1
*434 ANTENNA__245__I0
*435 ANTENNA__245__I1
*436 ANTENNA__245__S
*437 ANTENNA__247__I0
*438 ANTENNA__247__I1
*439 ANTENNA__247__S
*440 ANTENNA__249__I0
*441 ANTENNA__249__I1
*442 ANTENNA__249__S
*443 ANTENNA__250__I
*444 ANTENNA__252__I0
*445 ANTENNA__252__I1
*446 ANTENNA__252__S
*447 ANTENNA__253__I
*448 ANTENNA__254__I0
*449 ANTENNA__254__I1
*450 ANTENNA__254__S
*451 ANTENNA__256__I0
*452 ANTENNA__256__I1
*453 ANTENNA__256__S
*454 ANTENNA__258__I
*455 ANTENNA__259__I0
*456 ANTENNA__259__I1
*457 ANTENNA__259__S
*458 ANTENNA__260__I
*459 ANTENNA__261__I0
*460 ANTENNA__261__I1
*461 ANTENNA__261__S
*462 ANTENNA__262__I
*463 ANTENNA__263__I
*464 ANTENNA__264__I0
*465 ANTENNA__264__I1
*466 ANTENNA__264__S
*467 ANTENNA__265__I
*468 ANTENNA__266__I0
*469 ANTENNA__266__I1
*470 ANTENNA__266__S
*471 ANTENNA__267__I
*472 ANTENNA__268__I
*473 ANTENNA__269__A1
*474 ANTENNA__269__A2
*475 ANTENNA__270__A1
*476 ANTENNA__270__A2
*477 ANTENNA__272__A2
*478 ANTENNA__272__B1
*479 ANTENNA__273__A1
*480 ANTENNA__273__A2
*481 ANTENNA__276__A1
*482 ANTENNA__276__A2
*483 ANTENNA__277__I
*484 ANTENNA__278__A1
*485 ANTENNA__278__A2
*486 ANTENNA__280__A1
*487 ANTENNA__280__A2
*488 ANTENNA__281__I
*489 ANTENNA__282__A1
*490 ANTENNA__282__A2
*491 ANTENNA__284__A1
*492 ANTENNA__285__I
*493 ANTENNA__286__A1
*494 ANTENNA__286__A2
*495 ANTENNA__287__A1
*496 ANTENNA__287__A2
*497 ANTENNA__288__A1
*498 ANTENNA__288__A2
*499 ANTENNA__291__A1
*500 ANTENNA__292__A1
*501 ANTENNA__292__A2
*502 ANTENNA__293__A1
*503 ANTENNA__294__A1
*504 ANTENNA__294__A2
*505 ANTENNA__295__A3
*506 ANTENNA__296__A1
*507 ANTENNA__297__A1
*508 ANTENNA__298__A1
*509 ANTENNA__300__A2
*510 ANTENNA_input10_I
*511 ANTENNA_input11_I
*512 ANTENNA_input12_I
*513 ANTENNA_input13_I
*514 ANTENNA_input14_I
*515 ANTENNA_input15_I
*516 ANTENNA_input16_I
*517 ANTENNA_input17_I
*518 ANTENNA_input18_I
*519 ANTENNA_input19_I
*520 ANTENNA_input1_I
*521 ANTENNA_input20_I
*522 ANTENNA_input21_I
*523 ANTENNA_input22_I
*524 ANTENNA_input23_I
*525 ANTENNA_input24_I
*526 ANTENNA_input25_I
*527 ANTENNA_input26_I
*528 ANTENNA_input27_I
*529 ANTENNA_input28_I
*530 ANTENNA_input29_I
*531 ANTENNA_input2_I
*532 ANTENNA_input30_I
*533 ANTENNA_input31_I
*534 ANTENNA_input32_I
*535 ANTENNA_input33_I
*536 ANTENNA_input34_I
*537 ANTENNA_input35_I
*538 ANTENNA_input3_I
*539 ANTENNA_input4_I
*540 ANTENNA_input5_I
*541 ANTENNA_input6_I
*542 ANTENNA_input7_I
*543 ANTENNA_input8_I
*544 ANTENNA_input9_I
*545 ANTENNA_output36_I
*546 ANTENNA_output37_I
*547 ANTENNA_output38_I
*548 ANTENNA_output40_I
*549 ANTENNA_output41_I
*550 ANTENNA_output42_I
*551 ANTENNA_output43_I
*552 ANTENNA_output45_I
*553 ANTENNA_output47_I
*554 ANTENNA_output48_I
*555 ANTENNA_output49_I
*556 ANTENNA_output50_I
*557 ANTENNA_output51_I
*558 ANTENNA_output53_I
*559 ANTENNA_output54_I
*560 ANTENNA_output58_I
*561 ANTENNA_output59_I
*562 ANTENNA_output60_I
*563 ANTENNA_output61_I
*564 ANTENNA_output62_I
*565 ANTENNA_output63_I
*566 ANTENNA_output65_I
*567 ANTENNA_output66_I
*568 ANTENNA_output67_I
*569 ANTENNA_output68_I
*570 ANTENNA_output69_I
*571 ANTENNA_output71_I
*572 ANTENNA_output72_I
*573 ANTENNA_output73_I
*574 ANTENNA_output74_I
*575 FILLER_0_103
*576 FILLER_0_107
*577 FILLER_0_115
*578 FILLER_0_119
*579 FILLER_0_135
*580 FILLER_0_139
*581 FILLER_0_142
*582 FILLER_0_149
*583 FILLER_0_157
*584 FILLER_0_159
*585 FILLER_0_174
*586 FILLER_0_177
*587 FILLER_0_180
*588 FILLER_0_182
*589 FILLER_0_185
*590 FILLER_0_193
*591 FILLER_0_2
*592 FILLER_0_209
*593 FILLER_0_21
*594 FILLER_0_212
*595 FILLER_0_227
*596 FILLER_0_235
*597 FILLER_0_243
*598 FILLER_0_247
*599 FILLER_0_25
*600 FILLER_0_251
*601 FILLER_0_259
*602 FILLER_0_275
*603 FILLER_0_279
*604 FILLER_0_282
*605 FILLER_0_289
*606 FILLER_0_29
*607 FILLER_0_293
*608 FILLER_0_301
*609 FILLER_0_309
*610 FILLER_0_31
*611 FILLER_0_311
*612 FILLER_0_314
*613 FILLER_0_317
*614 FILLER_0_325
*615 FILLER_0_329
*616 FILLER_0_333
*617 FILLER_0_34
*618 FILLER_0_349
*619 FILLER_0_352
*620 FILLER_0_355
*621 FILLER_0_37
*622 FILLER_0_371
*623 FILLER_0_44
*624 FILLER_0_52
*625 FILLER_0_54
*626 FILLER_0_6
*627 FILLER_0_69
*628 FILLER_0_72
*629 FILLER_0_87
*630 FILLER_0_91
*631 FILLER_0_95
*632 FILLER_10_101
*633 FILLER_10_105
*634 FILLER_10_108
*635 FILLER_10_172
*636 FILLER_10_176
*637 FILLER_10_179
*638 FILLER_10_2
*639 FILLER_10_243
*640 FILLER_10_247
*641 FILLER_10_250
*642 FILLER_10_314
*643 FILLER_10_318
*644 FILLER_10_321
*645 FILLER_10_34
*646 FILLER_10_353
*647 FILLER_10_369
*648 FILLER_10_37
*649 FILLER_10_371
*650 FILLER_11_137
*651 FILLER_11_141
*652 FILLER_11_144
*653 FILLER_11_2
*654 FILLER_11_208
*655 FILLER_11_212
*656 FILLER_11_215
*657 FILLER_11_279
*658 FILLER_11_283
*659 FILLER_11_286
*660 FILLER_11_350
*661 FILLER_11_354
*662 FILLER_11_357
*663 FILLER_11_365
*664 FILLER_11_369
*665 FILLER_11_371
*666 FILLER_11_66
*667 FILLER_11_70
*668 FILLER_11_73
*669 FILLER_12_101
*670 FILLER_12_105
*671 FILLER_12_108
*672 FILLER_12_17
*673 FILLER_12_172
*674 FILLER_12_176
*675 FILLER_12_179
*676 FILLER_12_2
*677 FILLER_12_243
*678 FILLER_12_247
*679 FILLER_12_250
*680 FILLER_12_314
*681 FILLER_12_318
*682 FILLER_12_321
*683 FILLER_12_33
*684 FILLER_12_353
*685 FILLER_12_363
*686 FILLER_12_37
*687 FILLER_12_371
*688 FILLER_13_137
*689 FILLER_13_141
*690 FILLER_13_144
*691 FILLER_13_2
*692 FILLER_13_208
*693 FILLER_13_212
*694 FILLER_13_215
*695 FILLER_13_279
*696 FILLER_13_283
*697 FILLER_13_286
*698 FILLER_13_350
*699 FILLER_13_354
*700 FILLER_13_357
*701 FILLER_13_365
*702 FILLER_13_369
*703 FILLER_13_371
*704 FILLER_13_66
*705 FILLER_13_70
*706 FILLER_13_73
*707 FILLER_14_101
*708 FILLER_14_105
*709 FILLER_14_108
*710 FILLER_14_172
*711 FILLER_14_176
*712 FILLER_14_179
*713 FILLER_14_183
*714 FILLER_14_186
*715 FILLER_14_194
*716 FILLER_14_2
*717 FILLER_14_200
*718 FILLER_14_204
*719 FILLER_14_208
*720 FILLER_14_21
*721 FILLER_14_212
*722 FILLER_14_216
*723 FILLER_14_232
*724 FILLER_14_234
*725 FILLER_14_237
*726 FILLER_14_245
*727 FILLER_14_247
*728 FILLER_14_250
*729 FILLER_14_29
*730 FILLER_14_314
*731 FILLER_14_318
*732 FILLER_14_321
*733 FILLER_14_33
*734 FILLER_14_353
*735 FILLER_14_363
*736 FILLER_14_37
*737 FILLER_14_371
*738 FILLER_14_5
*739 FILLER_15_137
*740 FILLER_15_141
*741 FILLER_15_144
*742 FILLER_15_160
*743 FILLER_15_164
*744 FILLER_15_167
*745 FILLER_15_171
*746 FILLER_15_175
*747 FILLER_15_179
*748 FILLER_15_183
*749 FILLER_15_187
*750 FILLER_15_190
*751 FILLER_15_194
*752 FILLER_15_198
*753 FILLER_15_2
*754 FILLER_15_212
*755 FILLER_15_215
*756 FILLER_15_218
*757 FILLER_15_222
*758 FILLER_15_226
*759 FILLER_15_228
*760 FILLER_15_235
*761 FILLER_15_239
*762 FILLER_15_243
*763 FILLER_15_247
*764 FILLER_15_251
*765 FILLER_15_283
*766 FILLER_15_286
*767 FILLER_15_350
*768 FILLER_15_354
*769 FILLER_15_357
*770 FILLER_15_365
*771 FILLER_15_369
*772 FILLER_15_371
*773 FILLER_15_41
*774 FILLER_15_57
*775 FILLER_15_65
*776 FILLER_15_69
*777 FILLER_15_73
*778 FILLER_15_9
*779 FILLER_16_101
*780 FILLER_16_105
*781 FILLER_16_108
*782 FILLER_16_140
*783 FILLER_16_148
*784 FILLER_16_152
*785 FILLER_16_156
*786 FILLER_16_164
*787 FILLER_16_172
*788 FILLER_16_176
*789 FILLER_16_179
*790 FILLER_16_182
*791 FILLER_16_198
*792 FILLER_16_2
*793 FILLER_16_223
*794 FILLER_16_237
*795 FILLER_16_241
*796 FILLER_16_245
*797 FILLER_16_247
*798 FILLER_16_250
*799 FILLER_16_257
*800 FILLER_16_261
*801 FILLER_16_293
*802 FILLER_16_309
*803 FILLER_16_317
*804 FILLER_16_321
*805 FILLER_16_34
*806 FILLER_16_353
*807 FILLER_16_369
*808 FILLER_16_37
*809 FILLER_16_371
*810 FILLER_17_137
*811 FILLER_17_141
*812 FILLER_17_144
*813 FILLER_17_150
*814 FILLER_17_154
*815 FILLER_17_158
*816 FILLER_17_168
*817 FILLER_17_178
*818 FILLER_17_2
*819 FILLER_17_203
*820 FILLER_17_205
*821 FILLER_17_212
*822 FILLER_17_215
*823 FILLER_17_218
*824 FILLER_17_222
*825 FILLER_17_247
*826 FILLER_17_257
*827 FILLER_17_265
*828 FILLER_17_281
*829 FILLER_17_283
*830 FILLER_17_286
*831 FILLER_17_350
*832 FILLER_17_354
*833 FILLER_17_357
*834 FILLER_17_365
*835 FILLER_17_369
*836 FILLER_17_371
*837 FILLER_17_5
*838 FILLER_17_69
*839 FILLER_17_73
*840 FILLER_18_101
*841 FILLER_18_105
*842 FILLER_18_108
*843 FILLER_18_124
*844 FILLER_18_132
*845 FILLER_18_135
*846 FILLER_18_139
*847 FILLER_18_143
*848 FILLER_18_151
*849 FILLER_18_176
*850 FILLER_18_179
*851 FILLER_18_182
*852 FILLER_18_188
*853 FILLER_18_194
*854 FILLER_18_198
*855 FILLER_18_2
*856 FILLER_18_223
*857 FILLER_18_225
*858 FILLER_18_238
*859 FILLER_18_246
*860 FILLER_18_25
*861 FILLER_18_250
*862 FILLER_18_253
*863 FILLER_18_257
*864 FILLER_18_261
*865 FILLER_18_265
*866 FILLER_18_269
*867 FILLER_18_273
*868 FILLER_18_305
*869 FILLER_18_313
*870 FILLER_18_317
*871 FILLER_18_321
*872 FILLER_18_33
*873 FILLER_18_355
*874 FILLER_18_37
*875 FILLER_18_371
*876 FILLER_18_9
*877 FILLER_19_105
*878 FILLER_19_121
*879 FILLER_19_129
*880 FILLER_19_133
*881 FILLER_19_137
*882 FILLER_19_141
*883 FILLER_19_144
*884 FILLER_19_146
*885 FILLER_19_149
*886 FILLER_19_155
*887 FILLER_19_165
*888 FILLER_19_173
*889 FILLER_19_180
*890 FILLER_19_182
*891 FILLER_19_2
*892 FILLER_19_206
*893 FILLER_19_210
*894 FILLER_19_212
*895 FILLER_19_215
*896 FILLER_19_217
*897 FILLER_19_230
*898 FILLER_19_244
*899 FILLER_19_256
*900 FILLER_19_260
*901 FILLER_19_264
*902 FILLER_19_268
*903 FILLER_19_286
*904 FILLER_19_350
*905 FILLER_19_354
*906 FILLER_19_357
*907 FILLER_19_365
*908 FILLER_19_369
*909 FILLER_19_371
*910 FILLER_19_66
*911 FILLER_19_70
*912 FILLER_19_73
*913 FILLER_1_108
*914 FILLER_1_124
*915 FILLER_1_132
*916 FILLER_1_134
*917 FILLER_1_137
*918 FILLER_1_141
*919 FILLER_1_144
*920 FILLER_1_152
*921 FILLER_1_162
*922 FILLER_1_166
*923 FILLER_1_17
*924 FILLER_1_182
*925 FILLER_1_190
*926 FILLER_1_196
*927 FILLER_1_2
*928 FILLER_1_204
*929 FILLER_1_21
*930 FILLER_1_212
*931 FILLER_1_215
*932 FILLER_1_223
*933 FILLER_1_229
*934 FILLER_1_261
*935 FILLER_1_277
*936 FILLER_1_281
*937 FILLER_1_283
*938 FILLER_1_286
*939 FILLER_1_318
*940 FILLER_1_334
*941 FILLER_1_342
*942 FILLER_1_346
*943 FILLER_1_354
*944 FILLER_1_357
*945 FILLER_1_360
*946 FILLER_1_362
*947 FILLER_1_369
*948 FILLER_1_371
*949 FILLER_1_53
*950 FILLER_1_69
*951 FILLER_1_73
*952 FILLER_1_76
*953 FILLER_20_101
*954 FILLER_20_105
*955 FILLER_20_108
*956 FILLER_20_124
*957 FILLER_20_132
*958 FILLER_20_136
*959 FILLER_20_140
*960 FILLER_20_144
*961 FILLER_20_152
*962 FILLER_20_162
*963 FILLER_20_176
*964 FILLER_20_179
*965 FILLER_20_192
*966 FILLER_20_194
*967 FILLER_20_2
*968 FILLER_20_218
*969 FILLER_20_243
*970 FILLER_20_247
*971 FILLER_20_250
*972 FILLER_20_275
*973 FILLER_20_279
*974 FILLER_20_311
*975 FILLER_20_321
*976 FILLER_20_34
*977 FILLER_20_353
*978 FILLER_20_369
*979 FILLER_20_37
*980 FILLER_20_371
*981 FILLER_21_105
*982 FILLER_21_121
*983 FILLER_21_129
*984 FILLER_21_133
*985 FILLER_21_137
*986 FILLER_21_141
*987 FILLER_21_144
*988 FILLER_21_151
*989 FILLER_21_163
*990 FILLER_21_17
*991 FILLER_21_179
*992 FILLER_21_2
*993 FILLER_21_204
*994 FILLER_21_208
*995 FILLER_21_21
*996 FILLER_21_212
*997 FILLER_21_215
*998 FILLER_21_228
*999 FILLER_21_230
*1000 FILLER_21_235
*1001 FILLER_21_249
*1002 FILLER_21_263
*1003 FILLER_21_271
*1004 FILLER_21_275
*1005 FILLER_21_279
*1006 FILLER_21_283
*1007 FILLER_21_286
*1008 FILLER_21_350
*1009 FILLER_21_354
*1010 FILLER_21_357
*1011 FILLER_21_363
*1012 FILLER_21_371
*1013 FILLER_21_53
*1014 FILLER_21_69
*1015 FILLER_21_73
*1016 FILLER_22_101
*1017 FILLER_22_105
*1018 FILLER_22_108
*1019 FILLER_22_124
*1020 FILLER_22_128
*1021 FILLER_22_132
*1022 FILLER_22_136
*1023 FILLER_22_140
*1024 FILLER_22_144
*1025 FILLER_22_152
*1026 FILLER_22_160
*1027 FILLER_22_172
*1028 FILLER_22_176
*1029 FILLER_22_179
*1030 FILLER_22_186
*1031 FILLER_22_190
*1032 FILLER_22_2
*1033 FILLER_22_215
*1034 FILLER_22_242
*1035 FILLER_22_246
*1036 FILLER_22_250
*1037 FILLER_22_274
*1038 FILLER_22_278
*1039 FILLER_22_282
*1040 FILLER_22_286
*1041 FILLER_22_318
*1042 FILLER_22_321
*1043 FILLER_22_34
*1044 FILLER_22_353
*1045 FILLER_22_369
*1046 FILLER_22_37
*1047 FILLER_22_371
*1048 FILLER_23_105
*1049 FILLER_23_11
*1050 FILLER_23_121
*1051 FILLER_23_125
*1052 FILLER_23_129
*1053 FILLER_23_133
*1054 FILLER_23_137
*1055 FILLER_23_141
*1056 FILLER_23_144
*1057 FILLER_23_146
*1058 FILLER_23_15
*1059 FILLER_23_151
*1060 FILLER_23_161
*1061 FILLER_23_178
*1062 FILLER_23_2
*1063 FILLER_23_203
*1064 FILLER_23_207
*1065 FILLER_23_211
*1066 FILLER_23_215
*1067 FILLER_23_240
*1068 FILLER_23_254
*1069 FILLER_23_258
*1070 FILLER_23_262
*1071 FILLER_23_266
*1072 FILLER_23_270
*1073 FILLER_23_274
*1074 FILLER_23_277
*1075 FILLER_23_281
*1076 FILLER_23_283
*1077 FILLER_23_286
*1078 FILLER_23_350
*1079 FILLER_23_354
*1080 FILLER_23_357
*1081 FILLER_23_365
*1082 FILLER_23_369
*1083 FILLER_23_371
*1084 FILLER_23_4
*1085 FILLER_23_47
*1086 FILLER_23_63
*1087 FILLER_23_73
*1088 FILLER_24_101
*1089 FILLER_24_105
*1090 FILLER_24_108
*1091 FILLER_24_116
*1092 FILLER_24_119
*1093 FILLER_24_123
*1094 FILLER_24_127
*1095 FILLER_24_131
*1096 FILLER_24_135
*1097 FILLER_24_143
*1098 FILLER_24_151
*1099 FILLER_24_163
*1100 FILLER_24_17
*1101 FILLER_24_173
*1102 FILLER_24_179
*1103 FILLER_24_195
*1104 FILLER_24_2
*1105 FILLER_24_21
*1106 FILLER_24_220
*1107 FILLER_24_247
*1108 FILLER_24_250
*1109 FILLER_24_275
*1110 FILLER_24_283
*1111 FILLER_24_287
*1112 FILLER_24_29
*1113 FILLER_24_321
*1114 FILLER_24_33
*1115 FILLER_24_355
*1116 FILLER_24_37
*1117 FILLER_24_371
*1118 FILLER_25_105
*1119 FILLER_25_113
*1120 FILLER_25_117
*1121 FILLER_25_121
*1122 FILLER_25_125
*1123 FILLER_25_129
*1124 FILLER_25_133
*1125 FILLER_25_141
*1126 FILLER_25_144
*1127 FILLER_25_160
*1128 FILLER_25_166
*1129 FILLER_25_168
*1130 FILLER_25_175
*1131 FILLER_25_181
*1132 FILLER_25_198
*1133 FILLER_25_2
*1134 FILLER_25_212
*1135 FILLER_25_215
*1136 FILLER_25_239
*1137 FILLER_25_264
*1138 FILLER_25_278
*1139 FILLER_25_282
*1140 FILLER_25_286
*1141 FILLER_25_350
*1142 FILLER_25_354
*1143 FILLER_25_357
*1144 FILLER_25_365
*1145 FILLER_25_369
*1146 FILLER_25_371
*1147 FILLER_25_66
*1148 FILLER_25_70
*1149 FILLER_25_73
*1150 FILLER_26_101
*1151 FILLER_26_105
*1152 FILLER_26_108
*1153 FILLER_26_116
*1154 FILLER_26_122
*1155 FILLER_26_126
*1156 FILLER_26_134
*1157 FILLER_26_142
*1158 FILLER_26_150
*1159 FILLER_26_160
*1160 FILLER_26_162
*1161 FILLER_26_165
*1162 FILLER_26_175
*1163 FILLER_26_179
*1164 FILLER_26_184
*1165 FILLER_26_2
*1166 FILLER_26_209
*1167 FILLER_26_21
*1168 FILLER_26_211
*1169 FILLER_26_235
*1170 FILLER_26_247
*1171 FILLER_26_250
*1172 FILLER_26_274
*1173 FILLER_26_278
*1174 FILLER_26_282
*1175 FILLER_26_286
*1176 FILLER_26_29
*1177 FILLER_26_318
*1178 FILLER_26_321
*1179 FILLER_26_33
*1180 FILLER_26_353
*1181 FILLER_26_369
*1182 FILLER_26_37
*1183 FILLER_26_371
*1184 FILLER_26_5
*1185 FILLER_27_105
*1186 FILLER_27_113
*1187 FILLER_27_117
*1188 FILLER_27_121
*1189 FILLER_27_125
*1190 FILLER_27_133
*1191 FILLER_27_141
*1192 FILLER_27_144
*1193 FILLER_27_147
*1194 FILLER_27_155
*1195 FILLER_27_163
*1196 FILLER_27_173
*1197 FILLER_27_187
*1198 FILLER_27_2
*1199 FILLER_27_202
*1200 FILLER_27_206
*1201 FILLER_27_210
*1202 FILLER_27_212
*1203 FILLER_27_215
*1204 FILLER_27_218
*1205 FILLER_27_224
*1206 FILLER_27_228
*1207 FILLER_27_232
*1208 FILLER_27_245
*1209 FILLER_27_249
*1210 FILLER_27_253
*1211 FILLER_27_267
*1212 FILLER_27_271
*1213 FILLER_27_278
*1214 FILLER_27_282
*1215 FILLER_27_286
*1216 FILLER_27_289
*1217 FILLER_27_353
*1218 FILLER_27_357
*1219 FILLER_27_363
*1220 FILLER_27_371
*1221 FILLER_27_41
*1222 FILLER_27_57
*1223 FILLER_27_65
*1224 FILLER_27_69
*1225 FILLER_27_73
*1226 FILLER_27_9
*1227 FILLER_28_101
*1228 FILLER_28_105
*1229 FILLER_28_108
*1230 FILLER_28_11
*1231 FILLER_28_116
*1232 FILLER_28_122
*1233 FILLER_28_126
*1234 FILLER_28_130
*1235 FILLER_28_134
*1236 FILLER_28_15
*1237 FILLER_28_151
*1238 FILLER_28_155
*1239 FILLER_28_164
*1240 FILLER_28_174
*1241 FILLER_28_176
*1242 FILLER_28_179
*1243 FILLER_28_185
*1244 FILLER_28_193
*1245 FILLER_28_2
*1246 FILLER_28_218
*1247 FILLER_28_243
*1248 FILLER_28_247
*1249 FILLER_28_250
*1250 FILLER_28_261
*1251 FILLER_28_280
*1252 FILLER_28_284
*1253 FILLER_28_288
*1254 FILLER_28_292
*1255 FILLER_28_296
*1256 FILLER_28_31
*1257 FILLER_28_312
*1258 FILLER_28_316
*1259 FILLER_28_318
*1260 FILLER_28_321
*1261 FILLER_28_353
*1262 FILLER_28_369
*1263 FILLER_28_37
*1264 FILLER_28_371
*1265 FILLER_28_4
*1266 FILLER_29_105
*1267 FILLER_29_11
*1268 FILLER_29_121
*1269 FILLER_29_125
*1270 FILLER_29_129
*1271 FILLER_29_133
*1272 FILLER_29_137
*1273 FILLER_29_141
*1274 FILLER_29_144
*1275 FILLER_29_15
*1276 FILLER_29_160
*1277 FILLER_29_172
*1278 FILLER_29_198
*1279 FILLER_29_2
*1280 FILLER_29_212
*1281 FILLER_29_215
*1282 FILLER_29_218
*1283 FILLER_29_243
*1284 FILLER_29_247
*1285 FILLER_29_251
*1286 FILLER_29_257
*1287 FILLER_29_261
*1288 FILLER_29_263
*1289 FILLER_29_279
*1290 FILLER_29_283
*1291 FILLER_29_286
*1292 FILLER_29_289
*1293 FILLER_29_293
*1294 FILLER_29_297
*1295 FILLER_29_329
*1296 FILLER_29_345
*1297 FILLER_29_353
*1298 FILLER_29_357
*1299 FILLER_29_365
*1300 FILLER_29_369
*1301 FILLER_29_371
*1302 FILLER_29_4
*1303 FILLER_29_47
*1304 FILLER_29_63
*1305 FILLER_29_73
*1306 FILLER_2_101
*1307 FILLER_2_105
*1308 FILLER_2_108
*1309 FILLER_2_17
*1310 FILLER_2_172
*1311 FILLER_2_176
*1312 FILLER_2_179
*1313 FILLER_2_2
*1314 FILLER_2_21
*1315 FILLER_2_243
*1316 FILLER_2_247
*1317 FILLER_2_250
*1318 FILLER_2_29
*1319 FILLER_2_314
*1320 FILLER_2_318
*1321 FILLER_2_321
*1322 FILLER_2_33
*1323 FILLER_2_355
*1324 FILLER_2_37
*1325 FILLER_2_371
*1326 FILLER_30_101
*1327 FILLER_30_105
*1328 FILLER_30_108
*1329 FILLER_30_124
*1330 FILLER_30_132
*1331 FILLER_30_135
*1332 FILLER_30_139
*1333 FILLER_30_143
*1334 FILLER_30_160
*1335 FILLER_30_17
*1336 FILLER_30_170
*1337 FILLER_30_176
*1338 FILLER_30_179
*1339 FILLER_30_182
*1340 FILLER_30_2
*1341 FILLER_30_209
*1342 FILLER_30_213
*1343 FILLER_30_217
*1344 FILLER_30_221
*1345 FILLER_30_223
*1346 FILLER_30_247
*1347 FILLER_30_250
*1348 FILLER_30_265
*1349 FILLER_30_279
*1350 FILLER_30_283
*1351 FILLER_30_287
*1352 FILLER_30_291
*1353 FILLER_30_307
*1354 FILLER_30_315
*1355 FILLER_30_321
*1356 FILLER_30_33
*1357 FILLER_30_355
*1358 FILLER_30_37
*1359 FILLER_30_371
*1360 FILLER_31_105
*1361 FILLER_31_121
*1362 FILLER_31_129
*1363 FILLER_31_133
*1364 FILLER_31_137
*1365 FILLER_31_141
*1366 FILLER_31_144
*1367 FILLER_31_147
*1368 FILLER_31_151
*1369 FILLER_31_159
*1370 FILLER_31_184
*1371 FILLER_31_188
*1372 FILLER_31_2
*1373 FILLER_31_212
*1374 FILLER_31_215
*1375 FILLER_31_239
*1376 FILLER_31_264
*1377 FILLER_31_272
*1378 FILLER_31_276
*1379 FILLER_31_280
*1380 FILLER_31_286
*1381 FILLER_31_350
*1382 FILLER_31_354
*1383 FILLER_31_357
*1384 FILLER_31_365
*1385 FILLER_31_369
*1386 FILLER_31_371
*1387 FILLER_31_66
*1388 FILLER_31_70
*1389 FILLER_31_73
*1390 FILLER_32_101
*1391 FILLER_32_105
*1392 FILLER_32_108
*1393 FILLER_32_124
*1394 FILLER_32_128
*1395 FILLER_32_130
*1396 FILLER_32_133
*1397 FILLER_32_137
*1398 FILLER_32_141
*1399 FILLER_32_145
*1400 FILLER_32_170
*1401 FILLER_32_176
*1402 FILLER_32_179
*1403 FILLER_32_195
*1404 FILLER_32_2
*1405 FILLER_32_209
*1406 FILLER_32_237
*1407 FILLER_32_241
*1408 FILLER_32_245
*1409 FILLER_32_247
*1410 FILLER_32_250
*1411 FILLER_32_263
*1412 FILLER_32_271
*1413 FILLER_32_275
*1414 FILLER_32_279
*1415 FILLER_32_311
*1416 FILLER_32_321
*1417 FILLER_32_34
*1418 FILLER_32_353
*1419 FILLER_32_369
*1420 FILLER_32_37
*1421 FILLER_32_371
*1422 FILLER_33_105
*1423 FILLER_33_121
*1424 FILLER_33_129
*1425 FILLER_33_133
*1426 FILLER_33_137
*1427 FILLER_33_141
*1428 FILLER_33_144
*1429 FILLER_33_154
*1430 FILLER_33_171
*1431 FILLER_33_188
*1432 FILLER_33_190
*1433 FILLER_33_2
*1434 FILLER_33_206
*1435 FILLER_33_210
*1436 FILLER_33_212
*1437 FILLER_33_215
*1438 FILLER_33_231
*1439 FILLER_33_235
*1440 FILLER_33_254
*1441 FILLER_33_273
*1442 FILLER_33_277
*1443 FILLER_33_281
*1444 FILLER_33_283
*1445 FILLER_33_286
*1446 FILLER_33_350
*1447 FILLER_33_354
*1448 FILLER_33_357
*1449 FILLER_33_365
*1450 FILLER_33_369
*1451 FILLER_33_371
*1452 FILLER_33_5
*1453 FILLER_33_69
*1454 FILLER_33_73
*1455 FILLER_34_100
*1456 FILLER_34_104
*1457 FILLER_34_108
*1458 FILLER_34_116
*1459 FILLER_34_132
*1460 FILLER_34_136
*1461 FILLER_34_138
*1462 FILLER_34_141
*1463 FILLER_34_145
*1464 FILLER_34_149
*1465 FILLER_34_157
*1466 FILLER_34_174
*1467 FILLER_34_176
*1468 FILLER_34_179
*1469 FILLER_34_185
*1470 FILLER_34_189
*1471 FILLER_34_193
*1472 FILLER_34_2
*1473 FILLER_34_210
*1474 FILLER_34_227
*1475 FILLER_34_231
*1476 FILLER_34_247
*1477 FILLER_34_25
*1478 FILLER_34_250
*1479 FILLER_34_259
*1480 FILLER_34_263
*1481 FILLER_34_267
*1482 FILLER_34_271
*1483 FILLER_34_275
*1484 FILLER_34_307
*1485 FILLER_34_315
*1486 FILLER_34_321
*1487 FILLER_34_33
*1488 FILLER_34_337
*1489 FILLER_34_341
*1490 FILLER_34_349
*1491 FILLER_34_357
*1492 FILLER_34_363
*1493 FILLER_34_37
*1494 FILLER_34_371
*1495 FILLER_34_69
*1496 FILLER_34_85
*1497 FILLER_34_9
*1498 FILLER_34_92
*1499 FILLER_35_137
*1500 FILLER_35_141
*1501 FILLER_35_144
*1502 FILLER_35_160
*1503 FILLER_35_170
*1504 FILLER_35_178
*1505 FILLER_35_182
*1506 FILLER_35_186
*1507 FILLER_35_193
*1508 FILLER_35_197
*1509 FILLER_35_2
*1510 FILLER_35_201
*1511 FILLER_35_205
*1512 FILLER_35_208
*1513 FILLER_35_212
*1514 FILLER_35_215
*1515 FILLER_35_222
*1516 FILLER_35_224
*1517 FILLER_35_237
*1518 FILLER_35_245
*1519 FILLER_35_253
*1520 FILLER_35_257
*1521 FILLER_35_261
*1522 FILLER_35_265
*1523 FILLER_35_281
*1524 FILLER_35_283
*1525 FILLER_35_286
*1526 FILLER_35_350
*1527 FILLER_35_354
*1528 FILLER_35_357
*1529 FILLER_35_361
*1530 FILLER_35_369
*1531 FILLER_35_371
*1532 FILLER_35_66
*1533 FILLER_35_70
*1534 FILLER_35_73
*1535 FILLER_36_101
*1536 FILLER_36_105
*1537 FILLER_36_108
*1538 FILLER_36_11
*1539 FILLER_36_140
*1540 FILLER_36_148
*1541 FILLER_36_15
*1542 FILLER_36_150
*1543 FILLER_36_153
*1544 FILLER_36_157
*1545 FILLER_36_165
*1546 FILLER_36_171
*1547 FILLER_36_175
*1548 FILLER_36_179
*1549 FILLER_36_182
*1550 FILLER_36_198
*1551 FILLER_36_2
*1552 FILLER_36_202
*1553 FILLER_36_209
*1554 FILLER_36_213
*1555 FILLER_36_220
*1556 FILLER_36_224
*1557 FILLER_36_237
*1558 FILLER_36_241
*1559 FILLER_36_245
*1560 FILLER_36_247
*1561 FILLER_36_250
*1562 FILLER_36_253
*1563 FILLER_36_257