*SPEF "ieee 1481-1999"
*DESIGN "user_project_wrapper"
*DATE "11:11:11 Fri 11 11, 1111"
*VENDOR "OpenRCX"
*PROGRAM "Parallel Extraction"
*VERSION "1.0"
*DESIGN_FLOW "NAME_SCOPE LOCAL" "PIN_CAP NONE"
*DIVIDER /
*DELIMITER :
*BUS_DELIMITER []
*T_UNIT 1 NS
*C_UNIT 1 PF
*R_UNIT 1 OHM
*L_UNIT 1 HENRY

*NAME_MAP
*1 io_in[0]
*2 io_in[10]
*3 io_in[11]
*4 io_in[12]
*5 io_in[13]
*6 io_in[14]
*7 io_in[15]
*8 io_in[16]
*9 io_in[17]
*10 io_in[18]
*11 io_in[19]
*12 io_in[1]
*13 io_in[20]
*14 io_in[21]
*15 io_in[22]
*16 io_in[23]
*17 io_in[24]
*18 io_in[25]
*19 io_in[26]
*20 io_in[27]
*21 io_in[28]
*22 io_in[29]
*23 io_in[2]
*24 io_in[30]
*25 io_in[31]
*26 io_in[32]
*27 io_in[33]
*28 io_in[34]
*29 io_in[35]
*30 io_in[36]
*31 io_in[37]
*32 io_in[3]
*33 io_in[4]
*34 io_in[5]
*35 io_in[6]
*36 io_in[7]
*37 io_in[8]
*38 io_in[9]
*39 io_oeb[0]
*40 io_oeb[10]
*41 io_oeb[11]
*42 io_oeb[12]
*43 io_oeb[13]
*44 io_oeb[14]
*45 io_oeb[15]
*46 io_oeb[16]
*47 io_oeb[17]
*48 io_oeb[18]
*49 io_oeb[19]
*50 io_oeb[1]
*51 io_oeb[20]
*52 io_oeb[21]
*53 io_oeb[22]
*54 io_oeb[23]
*55 io_oeb[24]
*56 io_oeb[25]
*57 io_oeb[26]
*58 io_oeb[27]
*59 io_oeb[28]
*60 io_oeb[29]
*61 io_oeb[2]
*62 io_oeb[30]
*63 io_oeb[31]
*64 io_oeb[32]
*65 io_oeb[33]
*66 io_oeb[34]
*67 io_oeb[35]
*68 io_oeb[36]
*69 io_oeb[37]
*70 io_oeb[3]
*71 io_oeb[4]
*72 io_oeb[5]
*73 io_oeb[6]
*74 io_oeb[7]
*75 io_oeb[8]
*76 io_oeb[9]
*77 io_out[0]
*78 io_out[10]
*79 io_out[11]
*80 io_out[12]
*81 io_out[13]
*82 io_out[14]
*83 io_out[15]
*84 io_out[16]
*85 io_out[17]
*86 io_out[18]
*87 io_out[19]
*88 io_out[1]
*89 io_out[20]
*90 io_out[21]
*91 io_out[22]
*92 io_out[23]
*93 io_out[24]
*94 io_out[25]
*95 io_out[26]
*96 io_out[27]
*97 io_out[28]
*98 io_out[29]
*99 io_out[2]
*100 io_out[30]
*101 io_out[31]
*102 io_out[32]
*103 io_out[33]
*104 io_out[34]
*105 io_out[35]
*106 io_out[36]
*107 io_out[37]
*108 io_out[3]
*109 io_out[4]
*110 io_out[5]
*111 io_out[6]
*112 io_out[7]
*113 io_out[8]
*114 io_out[9]
*115 la_data_in[0]
*116 la_data_in[10]
*117 la_data_in[11]
*118 la_data_in[12]
*119 la_data_in[13]
*120 la_data_in[14]
*121 la_data_in[15]
*122 la_data_in[16]
*123 la_data_in[17]
*124 la_data_in[18]
*125 la_data_in[19]
*126 la_data_in[1]
*127 la_data_in[20]
*128 la_data_in[21]
*129 la_data_in[22]
*130 la_data_in[23]
*131 la_data_in[24]
*132 la_data_in[25]
*133 la_data_in[26]
*134 la_data_in[27]
*135 la_data_in[28]
*136 la_data_in[29]
*137 la_data_in[2]
*138 la_data_in[30]
*139 la_data_in[31]
*140 la_data_in[32]
*141 la_data_in[33]
*142 la_data_in[34]
*143 la_data_in[35]
*144 la_data_in[36]
*145 la_data_in[37]
*146 la_data_in[38]
*147 la_data_in[39]
*148 la_data_in[3]
*149 la_data_in[40]
*150 la_data_in[41]
*151 la_data_in[42]
*152 la_data_in[43]
*153 la_data_in[44]
*154 la_data_in[45]
*155 la_data_in[46]
*156 la_data_in[47]
*157 la_data_in[48]
*158 la_data_in[49]
*159 la_data_in[4]
*160 la_data_in[50]
*161 la_data_in[51]
*162 la_data_in[52]
*163 la_data_in[53]
*164 la_data_in[54]
*165 la_data_in[55]
*166 la_data_in[56]
*167 la_data_in[57]
*168 la_data_in[58]
*169 la_data_in[59]
*170 la_data_in[5]
*171 la_data_in[60]
*172 la_data_in[61]
*173 la_data_in[62]
*174 la_data_in[63]
*175 la_data_in[6]
*176 la_data_in[7]
*177 la_data_in[8]
*178 la_data_in[9]
*179 la_data_out[0]
*180 la_data_out[10]
*181 la_data_out[11]
*182 la_data_out[12]
*183 la_data_out[13]
*184 la_data_out[14]
*185 la_data_out[15]
*186 la_data_out[16]
*187 la_data_out[17]
*188 la_data_out[18]
*189 la_data_out[19]
*190 la_data_out[1]
*191 la_data_out[20]
*192 la_data_out[21]
*193 la_data_out[22]
*194 la_data_out[23]
*195 la_data_out[24]
*196 la_data_out[25]
*197 la_data_out[26]
*198 la_data_out[27]
*199 la_data_out[28]
*200 la_data_out[29]
*201 la_data_out[2]
*202 la_data_out[30]
*203 la_data_out[31]
*204 la_data_out[32]
*205 la_data_out[33]
*206 la_data_out[34]
*207 la_data_out[35]
*208 la_data_out[36]
*209 la_data_out[37]
*210 la_data_out[38]
*211 la_data_out[39]
*212 la_data_out[3]
*213 la_data_out[40]
*214 la_data_out[41]
*215 la_data_out[42]
*216 la_data_out[43]
*217 la_data_out[44]
*218 la_data_out[45]
*219 la_data_out[46]
*220 la_data_out[47]
*221 la_data_out[48]
*222 la_data_out[49]
*223 la_data_out[4]
*224 la_data_out[50]
*225 la_data_out[51]
*226 la_data_out[52]
*227 la_data_out[53]
*228 la_data_out[54]
*229 la_data_out[55]
*230 la_data_out[56]
*231 la_data_out[57]
*232 la_data_out[58]
*233 la_data_out[59]
*234 la_data_out[5]
*235 la_data_out[60]
*236 la_data_out[61]
*237 la_data_out[62]
*238 la_data_out[63]
*239 la_data_out[6]
*240 la_data_out[7]
*241 la_data_out[8]
*242 la_data_out[9]
*243 la_oenb[0]
*244 la_oenb[10]
*245 la_oenb[11]
*246 la_oenb[12]
*247 la_oenb[13]
*248 la_oenb[14]
*249 la_oenb[15]
*250 la_oenb[16]
*251 la_oenb[17]
*252 la_oenb[18]
*253 la_oenb[19]
*254 la_oenb[1]
*255 la_oenb[20]
*256 la_oenb[21]
*257 la_oenb[22]
*258 la_oenb[23]
*259 la_oenb[24]
*260 la_oenb[25]
*261 la_oenb[26]
*262 la_oenb[27]
*263 la_oenb[28]
*264 la_oenb[29]
*265 la_oenb[2]
*266 la_oenb[30]
*267 la_oenb[31]
*268 la_oenb[32]
*269 la_oenb[33]
*270 la_oenb[34]
*271 la_oenb[35]
*272 la_oenb[36]
*273 la_oenb[37]
*274 la_oenb[38]
*275 la_oenb[39]
*276 la_oenb[3]
*277 la_oenb[40]
*278 la_oenb[41]
*279 la_oenb[42]
*280 la_oenb[43]
*281 la_oenb[44]
*282 la_oenb[45]
*283 la_oenb[46]
*284 la_oenb[47]
*285 la_oenb[48]
*286 la_oenb[49]
*287 la_oenb[4]
*288 la_oenb[50]
*289 la_oenb[51]
*290 la_oenb[52]
*291 la_oenb[53]
*292 la_oenb[54]
*293 la_oenb[55]
*294 la_oenb[56]
*295 la_oenb[57]
*296 la_oenb[58]
*297 la_oenb[59]
*298 la_oenb[5]
*299 la_oenb[60]
*300 la_oenb[61]
*301 la_oenb[62]
*302 la_oenb[63]
*303 la_oenb[6]
*304 la_oenb[7]
*305 la_oenb[8]
*306 la_oenb[9]
*307 user_clock2
*308 user_irq[0]
*309 user_irq[1]
*310 user_irq[2]
*313 wb_clk_i
*314 wb_rst_i
*315 wbs_ack_o
*316 wbs_adr_i[0]
*317 wbs_adr_i[10]
*318 wbs_adr_i[11]
*319 wbs_adr_i[12]
*320 wbs_adr_i[13]
*321 wbs_adr_i[14]
*322 wbs_adr_i[15]
*323 wbs_adr_i[16]
*324 wbs_adr_i[17]
*325 wbs_adr_i[18]
*326 wbs_adr_i[19]
*327 wbs_adr_i[1]
*328 wbs_adr_i[20]
*329 wbs_adr_i[21]
*330 wbs_adr_i[22]
*331 wbs_adr_i[23]
*332 wbs_adr_i[24]
*333 wbs_adr_i[25]
*334 wbs_adr_i[26]
*335 wbs_adr_i[27]
*336 wbs_adr_i[28]
*337 wbs_adr_i[29]
*338 wbs_adr_i[2]
*339 wbs_adr_i[30]
*340 wbs_adr_i[31]
*341 wbs_adr_i[3]
*342 wbs_adr_i[4]
*343 wbs_adr_i[5]
*344 wbs_adr_i[6]
*345 wbs_adr_i[7]
*346 wbs_adr_i[8]
*347 wbs_adr_i[9]
*348 wbs_cyc_i
*349 wbs_dat_i[0]
*350 wbs_dat_i[10]
*351 wbs_dat_i[11]
*352 wbs_dat_i[12]
*353 wbs_dat_i[13]
*354 wbs_dat_i[14]
*355 wbs_dat_i[15]
*356 wbs_dat_i[16]
*357 wbs_dat_i[17]
*358 wbs_dat_i[18]
*359 wbs_dat_i[19]
*360 wbs_dat_i[1]
*361 wbs_dat_i[20]
*362 wbs_dat_i[21]
*363 wbs_dat_i[22]
*364 wbs_dat_i[23]
*365 wbs_dat_i[24]
*366 wbs_dat_i[25]
*367 wbs_dat_i[26]
*368 wbs_dat_i[27]
*369 wbs_dat_i[28]
*370 wbs_dat_i[29]
*371 wbs_dat_i[2]
*372 wbs_dat_i[30]
*373 wbs_dat_i[31]
*374 wbs_dat_i[3]
*375 wbs_dat_i[4]
*376 wbs_dat_i[5]
*377 wbs_dat_i[6]
*378 wbs_dat_i[7]
*379 wbs_dat_i[8]
*380 wbs_dat_i[9]
*381 wbs_dat_o[0]
*382 wbs_dat_o[10]
*383 wbs_dat_o[11]
*384 wbs_dat_o[12]
*385 wbs_dat_o[13]
*386 wbs_dat_o[14]
*387 wbs_dat_o[15]
*388 wbs_dat_o[16]
*389 wbs_dat_o[17]
*390 wbs_dat_o[18]
*391 wbs_dat_o[19]
*392 wbs_dat_o[1]
*393 wbs_dat_o[20]
*394 wbs_dat_o[21]
*395 wbs_dat_o[22]
*396 wbs_dat_o[23]
*397 wbs_dat_o[24]
*398 wbs_dat_o[25]
*399 wbs_dat_o[26]
*400 wbs_dat_o[27]
*401 wbs_dat_o[28]
*402 wbs_dat_o[29]
*403 wbs_dat_o[2]
*404 wbs_dat_o[30]
*405 wbs_dat_o[31]
*406 wbs_dat_o[3]
*407 wbs_dat_o[4]
*408 wbs_dat_o[5]
*409 wbs_dat_o[6]
*410 wbs_dat_o[7]
*411 wbs_dat_o[8]
*412 wbs_dat_o[9]
*413 wbs_sel_i[0]
*414 wbs_sel_i[1]
*415 wbs_sel_i[2]
*416 wbs_sel_i[3]
*417 wbs_stb_i
*418 wbs_we_i
*419 mprj

*PORTS
io_in[0] I
io_in[10] I
io_in[11] I
io_in[12] I
io_in[13] I
io_in[14] I
io_in[15] I
io_in[16] I
io_in[17] I
io_in[18] I
io_in[19] I
io_in[1] I
io_in[20] I
io_in[21] I
io_in[22] I
io_in[23] I
io_in[24] I
io_in[25] I
io_in[26] I
io_in[27] I
io_in[28] I
io_in[29] I
io_in[2] I
io_in[30] I
io_in[31] I
io_in[32] I
io_in[33] I
io_in[34] I
io_in[35] I
io_in[36] I
io_in[37] I
io_in[3] I
io_in[4] I
io_in[5] I
io_in[6] I
io_in[7] I
io_in[8] I
io_in[9] I
io_oeb[0] O
io_oeb[10] O
io_oeb[11] O
io_oeb[12] O
io_oeb[13] O
io_oeb[14] O
io_oeb[15] O
io_oeb[16] O
io_oeb[17] O
io_oeb[18] O
io_oeb[19] O
io_oeb[1] O
io_oeb[20] O
io_oeb[21] O
io_oeb[22] O
io_oeb[23] O
io_oeb[24] O
io_oeb[25] O
io_oeb[26] O
io_oeb[27] O
io_oeb[28] O
io_oeb[29] O
io_oeb[2] O
io_oeb[30] O
io_oeb[31] O
io_oeb[32] O
io_oeb[33] O
io_oeb[34] O
io_oeb[35] O
io_oeb[36] O
io_oeb[37] O
io_oeb[3] O
io_oeb[4] O
io_oeb[5] O
io_oeb[6] O
io_oeb[7] O
io_oeb[8] O
io_oeb[9] O
io_out[0] O
io_out[10] O
io_out[11] O
io_out[12] O
io_out[13] O
io_out[14] O
io_out[15] O
io_out[16] O
io_out[17] O
io_out[18] O
io_out[19] O
io_out[1] O
io_out[20] O
io_out[21] O
io_out[22] O
io_out[23] O
io_out[24] O
io_out[25] O
io_out[26] O
io_out[27] O
io_out[28] O
io_out[29] O
io_out[2] O
io_out[30] O
io_out[31] O
io_out[32] O
io_out[33] O
io_out[34] O
io_out[35] O
io_out[36] O
io_out[37] O
io_out[3] O
io_out[4] O
io_out[5] O
io_out[6] O
io_out[7] O
io_out[8] O
io_out[9] O
la_data_in[0] I
la_data_in[10] I
la_data_in[11] I
la_data_in[12] I
la_data_in[13] I
la_data_in[14] I
la_data_in[15] I
la_data_in[16] I
la_data_in[17] I
la_data_in[18] I
la_data_in[19] I
la_data_in[1] I
la_data_in[20] I
la_data_in[21] I
la_data_in[22] I
la_data_in[23] I
la_data_in[24] I
la_data_in[25] I
la_data_in[26] I
la_data_in[27] I
la_data_in[28] I
la_data_in[29] I
la_data_in[2] I
la_data_in[30] I
la_data_in[31] I
la_data_in[32] I
la_data_in[33] I
la_data_in[34] I
la_data_in[35] I
la_data_in[36] I
la_data_in[37] I
la_data_in[38] I
la_data_in[39] I
la_data_in[3] I
la_data_in[40] I
la_data_in[41] I
la_data_in[42] I
la_data_in[43] I
la_data_in[44] I
la_data_in[45] I
la_data_in[46] I
la_data_in[47] I
la_data_in[48] I
la_data_in[49] I
la_data_in[4] I
la_data_in[50] I
la_data_in[51] I
la_data_in[52] I
la_data_in[53] I
la_data_in[54] I
la_data_in[55] I
la_data_in[56] I
la_data_in[57] I
la_data_in[58] I
la_data_in[59] I
la_data_in[5] I
la_data_in[60] I
la_data_in[61] I
la_data_in[62] I
la_data_in[63] I
la_data_in[6] I
la_data_in[7] I
la_data_in[8] I
la_data_in[9] I
la_data_out[0] O
la_data_out[10] O
la_data_out[11] O
la_data_out[12] O
la_data_out[13] O
la_data_out[14] O
la_data_out[15] O
la_data_out[16] O
la_data_out[17] O
la_data_out[18] O
la_data_out[19] O
la_data_out[1] O
la_data_out[20] O
la_data_out[21] O
la_data_out[22] O
la_data_out[23] O
la_data_out[24] O
la_data_out[25] O
la_data_out[26] O
la_data_out[27] O
la_data_out[28] O
la_data_out[29] O
la_data_out[2] O
la_data_out[30] O
la_data_out[31] O
la_data_out[32] O
la_data_out[33] O
la_data_out[34] O
la_data_out[35] O
la_data_out[36] O
la_data_out[37] O
la_data_out[38] O
la_data_out[39] O
la_data_out[3] O
la_data_out[40] O
la_data_out[41] O
la_data_out[42] O
la_data_out[43] O
la_data_out[44] O
la_data_out[45] O
la_data_out[46] O
la_data_out[47] O
la_data_out[48] O
la_data_out[49] O
la_data_out[4] O
la_data_out[50] O
la_data_out[51] O
la_data_out[52] O
la_data_out[53] O
la_data_out[54] O
la_data_out[55] O
la_data_out[56] O
la_data_out[57] O
la_data_out[58] O
la_data_out[59] O
la_data_out[5] O
la_data_out[60] O
la_data_out[61] O
la_data_out[62] O
la_data_out[63] O
la_data_out[6] O
la_data_out[7] O
la_data_out[8] O
la_data_out[9] O
la_oenb[0] I
la_oenb[10] I
la_oenb[11] I
la_oenb[12] I
la_oenb[13] I
la_oenb[14] I
la_oenb[15] I
la_oenb[16] I
la_oenb[17] I
la_oenb[18] I
la_oenb[19] I
la_oenb[1] I
la_oenb[20] I
la_oenb[21] I
la_oenb[22] I
la_oenb[23] I
la_oenb[24] I
la_oenb[25] I
la_oenb[26] I
la_oenb[27] I
la_oenb[28] I
la_oenb[29] I
la_oenb[2] I
la_oenb[30] I
la_oenb[31] I
la_oenb[32] I
la_oenb[33] I
la_oenb[34] I
la_oenb[35] I
la_oenb[36] I
la_oenb[37] I
la_oenb[38] I
la_oenb[39] I
la_oenb[3] I
la_oenb[40] I
la_oenb[41] I
la_oenb[42] I
la_oenb[43] I
la_oenb[44] I
la_oenb[45] I
la_oenb[46] I
la_oenb[47] I
la_oenb[48] I
la_oenb[49] I
la_oenb[4] I
la_oenb[50] I
la_oenb[51] I
la_oenb[52] I
la_oenb[53] I
la_oenb[54] I
la_oenb[55] I
la_oenb[56] I
la_oenb[57] I
la_oenb[58] I
la_oenb[59] I
la_oenb[5] I
la_oenb[60] I
la_oenb[61] I
la_oenb[62] I
la_oenb[63] I
la_oenb[6] I
la_oenb[7] I
la_oenb[8] I
la_oenb[9] I
user_clock2 I
user_irq[0] O
user_irq[1] O
user_irq[2] O
wb_clk_i I
wb_rst_i I
wbs_ack_o O
wbs_adr_i[0] I
wbs_adr_i[10] I
wbs_adr_i[11] I
wbs_adr_i[12] I
wbs_adr_i[13] I
wbs_adr_i[14] I
wbs_adr_i[15] I
wbs_adr_i[16] I
wbs_adr_i[17] I
wbs_adr_i[18] I
wbs_adr_i[19] I
wbs_adr_i[1] I
wbs_adr_i[20] I
wbs_adr_i[21] I
wbs_adr_i[22] I
wbs_adr_i[23] I
wbs_adr_i[24] I
wbs_adr_i[25] I
wbs_adr_i[26] I
wbs_adr_i[27] I
wbs_adr_i[28] I
wbs_adr_i[29] I
wbs_adr_i[2] I
wbs_adr_i[30] I
wbs_adr_i[31] I
wbs_adr_i[3] I
wbs_adr_i[4] I
wbs_adr_i[5] I
wbs_adr_i[6] I
wbs_adr_i[7] I
wbs_adr_i[8] I
wbs_adr_i[9] I
wbs_cyc_i I
wbs_dat_i[0] I
wbs_dat_i[10] I
wbs_dat_i[11] I
wbs_dat_i[12] I
wbs_dat_i[13] I
wbs_dat_i[14] I
wbs_dat_i[15] I
wbs_dat_i[16] I
wbs_dat_i[17] I
wbs_dat_i[18] I
wbs_dat_i[19] I
wbs_dat_i[1] I
wbs_dat_i[20] I
wbs_dat_i[21] I
wbs_dat_i[22] I
wbs_dat_i[23] I
wbs_dat_i[24] I
wbs_dat_i[25] I
wbs_dat_i[26] I
wbs_dat_i[27] I
wbs_dat_i[28] I
wbs_dat_i[29] I
wbs_dat_i[2] I
wbs_dat_i[30] I
wbs_dat_i[31] I
wbs_dat_i[3] I
wbs_dat_i[4] I
wbs_dat_i[5] I
wbs_dat_i[6] I
wbs_dat_i[7] I
wbs_dat_i[8] I
wbs_dat_i[9] I
wbs_dat_o[0] O
wbs_dat_o[10] O
wbs_dat_o[11] O
wbs_dat_o[12] O
wbs_dat_o[13] O
wbs_dat_o[14] O
wbs_dat_o[15] O
wbs_dat_o[16] O
wbs_dat_o[17] O
wbs_dat_o[18] O
wbs_dat_o[19] O
wbs_dat_o[1] O
wbs_dat_o[20] O
wbs_dat_o[21] O
wbs_dat_o[22] O
wbs_dat_o[23] O
wbs_dat_o[24] O
wbs_dat_o[25] O
wbs_dat_o[26] O
wbs_dat_o[27] O
wbs_dat_o[28] O
wbs_dat_o[29] O
wbs_dat_o[2] O
wbs_dat_o[30] O
wbs_dat_o[31] O
wbs_dat_o[3] O
wbs_dat_o[4] O
wbs_dat_o[5] O
wbs_dat_o[6] O
wbs_dat_o[7] O
wbs_dat_o[8] O
wbs_dat_o[9] O
wbs_sel_i[0] I
wbs_sel_i[1] I
wbs_sel_i[2] I
wbs_sel_i[3] I
wbs_stb_i I
wbs_we_i I

*D_NET *1 0.710156
*CONN
*P io_in[0] I
*I *419:io_in[0] I *D user_proj_example
*CAP
1 io_in[0] 0.00023383
2 *419:io_in[0] 0.000888299
3 *1:11 0.0573591
4 *1:10 0.0564708
5 *1:8 0.0822877
6 *1:7 0.0825215
7 *419:io_in[0] *63:5 0.00267295
8 *1:8 *2:8 0.0112839
9 *1:8 *3:8 0.0478478
10 *1:8 *12:8 0
11 *1:8 *23:8 0
12 *1:8 *32:8 0
13 *1:8 *33:8 0.0018203
14 *1:8 *34:8 0.00410198
15 *1:8 *35:8 0.00524702
16 *1:8 *36:8 0.0224233
17 *1:8 *50:13 0
18 *1:11 *35:11 0.319435
19 *1:11 *63:5 0.0128891
20 *1:11 *72:5 0.00267295
*RES
1 io_in[0] *1:7 6.345 
2 *1:7 *1:8 822.69 
3 *1:8 *1:10 4.5 
4 *1:10 *1:11 904.32 
5 *1:11 *419:io_in[0] 18.81 
*END

*D_NET *2 0.652278
*CONN
*P io_in[10] I
*I *419:io_in[10] I *D user_proj_example
*CAP
1 io_in[10] 0.000294102
2 *419:io_in[10] 0.00150964
3 *2:11 0.0187566
4 *2:10 0.017247
5 *2:8 0.000752151
6 *2:7 0.00104625
7 *2:8 *3:8 0.0521637
8 *2:8 *36:8 0.0772009
9 *2:11 *73:10 0.229411
10 *2:11 *99:10 0.242612
11 *1:8 *2:8 0.0112839
*RES
1 io_in[10] *2:7 6.705 
2 *2:7 *2:8 196.47 
3 *2:8 *2:10 4.5 
4 *2:10 *2:11 706.95 
5 *2:11 *419:io_in[10] 14.715 
*END

*D_NET *3 0.433311
*CONN
*P io_in[11] I
*I *419:io_in[11] I *D user_proj_example
*CAP
1 io_in[11] 0.00027256
2 *419:io_in[11] 0.00541402
3 *3:11 0.046725
4 *3:10 0.041311
5 *3:8 0.00325242
6 *3:7 0.00352498
7 *3:8 *33:8 0.00141923
8 *3:8 *36:8 0.000429565
9 *3:11 *26:11 0.176678
10 *3:11 *47:14 0.0181482
11 *3:11 *74:14 0.0341208
12 *3:11 *82:12 0.00200321
13 *1:8 *3:8 0.0478478
14 *2:8 *3:8 0.0521637
*RES
1 io_in[11] *3:7 6.525 
2 *3:7 *3:8 157.23 
3 *3:8 *3:10 4.5 
4 *3:10 *3:11 688.05 
5 *3:11 *419:io_in[11] 40.635 
*END

*D_NET *4 0.493705
*CONN
*P io_in[12] I
*I *419:io_in[12] I *D user_proj_example
*CAP
1 io_in[12] 0.000698585
2 *419:io_in[12] 0.00571621
3 *4:11 0.03703
4 *4:10 0.0313138
5 *4:8 0.000358744
6 *4:7 0.00105733
7 *4:8 *12:8 0.00384579
8 *4:8 *39:13 0.0376487
9 *4:8 *77:13 0.0290968
10 *4:11 *24:11 0.150849
11 *4:11 *67:10 0.19609
*RES
1 io_in[12] *4:7 8.505 
2 *4:7 *4:8 96.03 
3 *4:8 *4:10 4.5 
4 *4:10 *4:11 664.47 
5 *4:11 *419:io_in[12] 42.435 
*END

*D_NET *5 0.447991
*CONN
*P io_in[13] I
*I *419:io_in[13] I *D user_proj_example
*CAP
1 io_in[13] 0.00173489
2 *419:io_in[13] 0.00126207
3 *5:11 0.0094001
4 *5:10 0.00987292
5 *5:10 *37:8 0
6 *5:10 *43:10 0.000144855
7 *5:11 *23:11 0.0473857
8 *5:11 *25:11 0.15024
9 *5:11 *78:10 0.227951
*RES
1 io_in[13] *5:10 21.555 
2 *5:10 *5:11 635.49 
3 *5:11 *419:io_in[13] 12.915 
*END

*D_NET *6 0.181082
*CONN
*P io_in[14] I
*I *419:io_in[14] I *D user_proj_example
*CAP
1 io_in[14] 0.000264341
2 *419:io_in[14] 0.00440571
3 *6:24 0.00706492
4 *6:19 0.0277389
5 *6:18 0.027915
6 *6:13 0.0545895
7 *6:11 0.0520186
8 *6:19 *29:19 0.00708472
9 *6:19 *33:11 0
*RES
1 io_in[14] *6:11 2.655 
2 *6:11 *6:13 405.27 
3 *6:13 *6:18 29.43 
4 *6:18 *6:19 220.05 
5 *6:19 *6:24 22.41 
6 *6:24 *419:io_in[14] 28.665 
*END

*D_NET *7 0.310842
*CONN
*P io_in[15] I
*I *419:io_in[15] I *D user_proj_example
*CAP
1 io_in[15] 0.000546288
2 *419:io_in[15] 0.000884539
3 *7:11 0.0167306
4 *7:10 0.0158461
5 *7:8 0.0465175
6 *7:7 0.0470638
7 *419:io_in[15] *43:10 0.000677126
8 *419:io_in[15] *57:10 0.000124744
9 *7:8 *8:8 0.182451
*RES
1 io_in[15] *7:7 8.685 
2 *7:7 *7:8 584.73 
3 *7:8 *7:10 4.5 
4 *7:10 *7:11 112.41 
5 *7:11 *419:io_in[15] 16.245 
*END

*D_NET *8 0.390642
*CONN
*P io_in[16] I
*I *419:io_in[16] I *D user_proj_example
*CAP
1 io_in[16] 0.000523307
2 *419:io_in[16] 0.000885751
3 *8:11 0.0169106
4 *8:10 0.0160248
5 *8:8 0.00484108
6 *8:7 0.00536438
7 *419:io_in[16] *43:10 0.000105554
8 *419:io_in[16] *57:10 0.000611937
9 *8:8 *84:16 0.162923
10 *7:8 *8:8 0.182451
*RES
1 io_in[16] *8:7 8.505 
2 *8:7 *8:8 456.75 
3 *8:8 *8:10 4.5 
4 *8:10 *8:11 113.31 
5 *8:11 *419:io_in[16] 16.065 
*END

*D_NET *9 0.129676
*CONN
*P io_in[17] I
*I *419:io_in[17] I *D user_proj_example
*CAP
1 io_in[17] 0.0010998
2 *419:io_in[17] 0.000143634
3 *9:17 0.00840991
4 *9:16 0.00826627
5 *9:14 0.0220003
6 *9:13 0.0220003
7 *9:11 0.00785231
8 *9:10 0.00785231
9 *9:8 0.0157259
10 *9:7 0.0168257
11 *9:8 *10:8 0.0132872
12 *9:14 *102:14 0
13 *9:14 *108:10 0.00621246
*RES
1 io_in[17] *9:7 12.645 
2 *9:7 *9:8 139.77 
3 *9:8 *9:10 4.5 
4 *9:10 *9:11 59.67 
5 *9:11 *9:13 4.5 
6 *9:13 *9:14 193.05 
7 *9:14 *9:16 4.5 
8 *9:16 *9:17 54.09 
9 *9:17 *419:io_in[17] 1.125 
*END

*D_NET *10 0.109759
*CONN
*P io_in[18] I
*I *419:io_in[18] I *D user_proj_example
*CAP
1 io_in[18] 0.00113876
2 *419:io_in[18] 0.00093744
3 *10:11 0.0164794
4 *10:10 0.015542
5 *10:8 0.0207452
6 *10:7 0.021884
7 *419:io_in[18] *43:10 0.000174091
8 *419:io_in[18] *57:10 0.00097643
9 *10:8 *86:16 0.0185946
10 *10:11 *48:13 0
11 *9:8 *10:8 0.0132872
*RES
1 io_in[18] *10:7 12.825 
2 *10:7 *10:8 200.79 
3 *10:8 *10:10 4.5 
4 *10:10 *10:11 108.99 
5 *10:11 *419:io_in[18] 17.145 
*END

*D_NET *11 0.055629
*CONN
*P io_in[19] I
*I *419:io_in[19] I *D user_proj_example
*CAP
1 io_in[19] 0.00378493
2 *419:io_in[19] 0.00104591
3 *11:19 0.0141257
4 *11:18 0.0130798
5 *11:16 0.00922716
6 *11:15 0.0130121
7 *419:io_in[19] *43:10 0.000166451
8 *419:io_in[19] *57:10 0.00118694
9 *11:19 io_oeb[19] 0
10 *11:19 *49:9 0
11 *11:19 *49:11 0
*RES
1 io_in[19] *11:15 33.885 
2 *11:15 *11:16 71.73 
3 *11:16 *11:18 4.5 
4 *11:18 *11:19 90.09 
5 *11:19 *419:io_in[19] 17.685 
*END

*D_NET *12 1.0512
*CONN
*P io_in[1] I
*I *419:io_in[1] I *D user_proj_example
*CAP
1 io_in[1] 0.000466564
2 *419:io_in[1] 0.00612857
3 *12:11 0.0775838
4 *12:10 0.0714552
5 *12:8 0.00362479
6 *12:7 0.00409135
7 *12:8 *39:13 0.000591267
8 *12:8 *50:13 0.298513
9 *12:8 *77:13 0.304632
10 *12:11 *66:14 0.280266
11 *1:8 *12:8 0
12 *4:8 *12:8 0.00384579
*RES
1 io_in[1] *12:7 8.145 
2 *12:7 *12:8 802.17 
3 *12:8 *12:10 4.5 
4 *12:10 *12:11 897.03 
5 *12:11 *419:io_in[1] 48.375 
*END

*D_NET *13 0.047909
*CONN
*P io_in[20] I
*I *419:io_in[20] I *D user_proj_example
*CAP
1 io_in[20] 0.0014675
2 *419:io_in[20] 0.00471957
3 *13:11 0.0162151
4 *13:10 0.0114955
5 *13:8 0.00627194
6 *13:7 0.00773944
*RES
1 io_in[20] *13:7 15.525 
2 *13:7 *13:8 48.33 
3 *13:8 *13:10 4.5 
4 *13:10 *13:11 82.44 
5 *13:11 *419:io_in[20] 30.735 
*END

*D_NET *14 0.080382
*CONN
*P io_in[21] I
*I *419:io_in[21] I *D user_proj_example
*CAP
1 io_in[21] 0.00141746
2 *419:io_in[21] 0.00457634
3 *14:19 0.0114132
4 *14:16 0.00683689
5 *14:14 0.0224149
6 *14:13 0.0273603
7 *14:10 0.0063629
*RES
1 io_in[21] *14:10 19.935 
2 *14:10 *14:13 41.85 
3 *14:13 *14:14 174.33 
4 *14:14 *14:16 4.5 
5 *14:16 *14:19 47.79 
6 *14:19 *419:io_in[21] 29.745 
*END

*D_NET *15 0.220913
*CONN
*P io_in[22] I
*I *419:io_in[22] I *D user_proj_example
*CAP
1 io_in[22] 0.00485065
2 *419:io_in[22] 0.00108524
3 *15:12 0.00955506
4 *15:11 0.00846982
5 *15:9 0.0110922
6 *15:7 0.0159428
7 *15:12 *23:11 0.0144149
8 *15:12 *37:17 0.0660555
9 *15:12 *44:10 0.00174657
10 *15:12 *46:10 0.0467113
11 *15:12 *57:10 0
12 *15:12 *89:10 0.0409888
*RES
1 io_in[22] *15:7 37.305 
2 *15:7 *15:9 79.2 
3 *15:9 *15:11 4.5 
4 *15:11 *15:12 305.19 
5 *15:12 *419:io_in[22] 11.655 
*END

*D_NET *16 0.14655
*CONN
*P io_in[23] I
*I *419:io_in[23] I *D user_proj_example
*CAP
1 io_in[23] 0.000345489
2 *419:io_in[23] 7.46899e-05
3 *16:19 0.00975515
4 *16:18 0.00968046
5 *16:16 0.0557459
6 *16:15 0.0557459
7 *16:13 0.00742834
8 *16:11 0.00777383
*RES
1 io_in[23] *16:11 3.195 
2 *16:11 *16:13 56.97 
3 *16:13 *16:15 4.5 
4 *16:15 *16:16 434.79 
5 *16:16 *16:18 4.5 
6 *16:18 *16:19 64.89 
7 *16:19 *419:io_in[23] 0.585 
*END

*D_NET *17 0.202247
*CONN
*P io_in[24] I
*I *419:io_in[24] I *D user_proj_example
*CAP
1 io_in[24] 0.000201168
2 *419:io_in[24] 0.00445618
3 *17:16 0.0152331
4 *17:15 0.0107769
5 *17:13 0.0856893
6 *17:11 0.0858905
*RES
1 io_in[24] *17:11 1.935 
2 *17:11 *17:13 542.25 
3 *17:13 *17:15 4.5 
4 *17:15 *17:16 78.48 
5 *17:16 *419:io_in[24] 28.935 
*END

*D_NET *18 0.417856
*CONN
*P io_in[25] I
*I *419:io_in[25] I *D user_proj_example
*CAP
1 io_in[25] 9.66877e-05
2 *419:io_in[25] 0.00666388
3 *18:13 0.0192526
4 *18:11 0.0126854
5 *18:13 *28:19 0.199994
6 *18:13 *61:14 0.179164
*RES
1 io_in[25] *18:11 1.215 
2 *18:11 *18:13 561.15 
3 *18:13 *419:io_in[25] 46.395 
*END

*D_NET *19 0.264659
*CONN
*P io_in[26] I
*I *419:io_in[26] I *D user_proj_example
*CAP
1 io_in[26] 0.00412586
2 *419:io_in[26] 0.000506793
3 *19:11 0.0402539
4 *19:10 0.0397471
5 *19:8 0.00412586
6 *19:8 *24:8 0.0117634
7 *19:11 *30:15 0.0529662
8 *19:11 *80:10 0.11117
*RES
1 io_in[26] *19:8 49.275 
2 *19:8 *19:10 4.5 
3 *19:10 *19:11 568.53 
4 *19:11 *419:io_in[26] 7.875 
*END

*D_NET *20 0.368246
*CONN
*P io_in[27] I
*I *419:io_in[27] I *D user_proj_example
*CAP
1 io_in[27] 0.00485068
2 *419:io_in[27] 0
3 *20:19 0.0372342
4 *20:18 0.0372342
5 *20:16 0.0063858
6 *20:15 0.0112365
7 *20:15 *64:13 0.00011848
8 *20:16 *22:16 0.0385376
9 *20:19 *63:5 0.232648
*RES
1 io_in[27] *20:15 38.565 
2 *20:15 *20:16 98.01 
3 *20:16 *20:18 4.5 
4 *20:18 *20:19 574.47 
5 *20:19 *419:io_in[27] 4.5 
*END

*D_NET *21 0.511936
*CONN
*P io_in[28] I
*I *419:io_in[28] I *D user_proj_example
*CAP
1 io_in[28] 0.00243872
2 *419:io_in[28] 0.00243419
3 *21:11 0.0240777
4 *21:10 0.0216435
5 *21:8 0.000157784
6 *21:7 0.0025965
7 *21:8 *24:8 0.0704374
8 *21:8 *67:13 0.0704454
9 *21:11 *42:10 0.131291
10 *21:11 *79:10 0.137471
11 *21:11 *94:10 0.0489424
*RES
1 io_in[28] *21:7 18.945 
2 *21:7 *21:8 179.37 
3 *21:8 *21:10 4.5 
4 *21:10 *21:11 611.55 
5 *21:11 *419:io_in[28] 20.655 
*END

*D_NET *22 0.659663
*CONN
*P io_in[29] I
*I *419:io_in[29] I *D user_proj_example
*CAP
1 io_in[29] 0.00452962
2 *419:io_in[29] 0.00222333
3 *22:19 0.00517652
4 *22:18 0.00295319
5 *22:16 0.0097671
6 *22:15 0.0142967
7 *22:16 *28:16 0.0967285
8 *22:19 *37:11 0.005362
9 *22:19 *62:10 0.245879
10 *22:19 *96:10 0.234209
11 *20:16 *22:16 0.0385376
*RES
1 io_in[29] *22:15 37.305 
2 *22:15 *22:16 246.15 
3 *22:16 *22:18 4.5 
4 *22:18 *22:19 616.95 
5 *22:19 *419:io_in[29] 17.415 
*END

*D_NET *23 0.953566
*CONN
*P io_in[2] I
*I *419:io_in[2] I *D user_proj_example
*CAP
1 io_in[2] 0.000423448
2 *419:io_in[2] 0.00110427
3 *23:11 0.0474903
4 *23:10 0.046386
5 *23:8 0.00464699
6 *23:7 0.00507044
7 *23:8 *32:8 0.249259
8 *23:8 *33:8 0.000933113
9 *23:8 *50:13 0.276414
10 *23:11 *25:11 0.242572
11 *23:11 *43:10 0
12 *23:11 *44:10 0
13 *23:11 *46:10 0.00838876
14 *23:11 *89:10 0.00907787
15 *1:8 *23:8 0
16 *5:11 *23:11 0.0473857
17 *15:12 *23:11 0.0144149
*RES
1 io_in[2] *23:7 7.785 
2 *23:7 *23:8 703.35 
3 *23:8 *23:10 4.5 
4 *23:10 *23:11 873.63 
5 *23:11 *419:io_in[2] 12.555 
*END

*D_NET *24 0.460197
*CONN
*P io_in[30] I
*I *419:io_in[30] I *D user_proj_example
*CAP
1 io_in[30] 0.00207077
2 *419:io_in[30] 0.00580538
3 *24:11 0.0460042
4 *24:10 0.0401988
5 *24:8 0.0216616
6 *24:7 0.0237324
7 *24:8 *67:13 0.0278503
8 *24:11 *51:10 0.00929375
9 *24:11 *67:10 0.0505295
10 *4:11 *24:11 0.150849
11 *19:8 *24:8 0.0117634
12 *21:8 *24:8 0.0704374
*RES
1 io_in[30] *24:7 19.125 
2 *24:7 *24:8 336.87 
3 *24:8 *24:10 4.5 
4 *24:10 *24:11 651.87 
5 *24:11 *419:io_in[30] 43.875 
*END

*D_NET *25 0.697014
*CONN
*P io_in[31] I
*I *419:io_in[31] I *D user_proj_example
*CAP
1 io_in[31] 0.00342849
2 *419:io_in[31] 0.00120713
3 *25:11 0.0116464
4 *25:10 0.0104392
5 *25:8 0.0148479
6 *25:7 0.0182764
7 *25:8 *58:13 0.0583869
8 *25:8 *66:17 0.147592
9 *25:11 *56:10 0.0294172
10 *25:11 *78:10 0.00896077
11 *5:11 *25:11 0.15024
12 *23:11 *25:11 0.242572
*RES
1 io_in[31] *25:7 29.745 
2 *25:7 *25:8 375.39 
3 *25:8 *25:10 4.5 
4 *25:10 *25:11 663.39 
5 *25:11 *419:io_in[31] 12.735 
*END

*D_NET *26 0.689906
*CONN
*P io_in[32] I
*I *419:io_in[32] I *D user_proj_example
*CAP
1 io_in[32] 0.00231668
2 *419:io_in[32] 0.00515455
3 *26:11 0.0344185
4 *26:10 0.0292639
5 *26:8 0.0340536
6 *26:7 0.0363703
7 *26:8 *101:17 0.164746
8 *26:11 *74:14 0.206905
9 *3:11 *26:11 0.176678
*RES
1 io_in[32] *26:7 21.465 
2 *26:7 *26:8 470.25 
3 *26:8 *26:10 4.5 
4 *26:10 *26:11 692.73 
5 *26:11 *419:io_in[32] 39.735 
*END

*D_NET *27 0.801256
*CONN
*P io_in[33] I
*I *419:io_in[33] I *D user_proj_example
*CAP
1 io_in[33] 0.00396157
2 *419:io_in[33] 0.00270435
3 *27:19 0.0111594
4 *27:18 0.00845505
5 *27:16 0.0371617
6 *27:15 0.0411232
7 *27:16 *102:17 0.187956
8 *27:19 *41:10 0.0181884
9 *27:19 *59:10 0.241043
10 *27:19 *70:10 0.249503
*RES
1 io_in[33] *27:15 34.785 
2 *27:15 *27:16 524.07 
3 *27:16 *27:18 4.5 
4 *27:18 *27:19 703.53 
5 *27:19 *419:io_in[33] 22.995 
*END

*D_NET *28 0.742557
*CONN
*P io_in[34] I
*I *419:io_in[34] I *D user_proj_example
*CAP
1 io_in[34] 0.00420938
2 *419:io_in[34] 0.00580676
3 *28:19 0.0585724
4 *28:18 0.0527656
5 *28:16 0.0242115
6 *28:15 0.0284209
7 *28:16 *104:13 0.241003
8 *28:19 *61:14 0.0308454
9 *18:13 *28:19 0.199994
10 *22:16 *28:16 0.0967285
*RES
1 io_in[34] *28:15 37.125 
2 *28:15 *28:16 613.35 
3 *28:16 *28:18 4.5 
4 *28:18 *28:19 722.25 
5 *28:19 *419:io_in[34] 44.775 
*END

*D_NET *29 0.674412
*CONN
*P io_in[35] I
*I *419:io_in[35] I *D user_proj_example
*CAP
1 io_in[35] 0.00274099
2 *419:io_in[35] 0.00427798
3 *29:24 0.0067221
4 *29:19 0.0489825
5 *29:18 0.0465384
6 *29:16 0.0704102
7 *29:15 0.0731512
8 *29:16 *60:13 0.113788
9 *29:16 *96:13 0.00046651
10 *29:19 *68:10 0.300249
11 *6:19 *29:19 0.00708472
*RES
1 io_in[35] *29:15 25.605 
2 *29:15 *29:16 686.07 
3 *29:16 *29:18 4.5 
4 *29:18 *29:19 752.13 
5 *29:19 *29:24 22.05 
6 *29:24 *419:io_in[35] 29.745 
*END

*D_NET *30 0.853698
*CONN
*P io_in[36] I
*I *419:io_in[36] I *D user_proj_example
*CAP
1 io_in[36] 0.000142222
2 *419:io_in[36] 0.000428876
3 *30:15 0.0133777
4 *30:14 0.0129489
5 *30:12 0.0606798
6 *30:11 0.060822
7 *30:12 *64:13 0.190045
8 *30:15 *32:11 0.00781852
9 *30:15 *34:11 0.259473
10 *30:15 *80:10 0.194995
11 *19:11 *30:15 0.0529662
*RES
1 io_in[36] *30:11 5.805 
2 *30:11 *30:12 709.83 
3 *30:12 *30:14 4.5 
4 *30:14 *30:15 794.43 
5 *30:15 *419:io_in[36] 7.515 
*END

*D_NET *31 0.665497
*CONN
*P io_in[37] I
*I *419:io_in[37] I *D user_proj_example
*CAP
1 io_in[37] 0.00440065
2 *419:io_in[37] 0.00225559
3 *31:14 0.106928
4 *31:13 0.104672
5 *31:11 0.0534167
6 *31:10 0.0578174
7 *419:io_in[37] *43:10 0.000212152
8 *419:io_in[37] *69:12 0.00410336
9 *31:10 io_out[37] 0
10 *31:11 *107:14 0.331691
*RES
1 io_in[37] *31:10 42.255 
2 *31:10 *31:11 828.09 
3 *31:11 *31:13 4.5 
4 *31:13 *31:14 807.93 
5 *31:14 *419:io_in[37] 31.725 
*END

*D_NET *32 0.925417
*CONN
*P io_in[3] I
*I *419:io_in[3] I *D user_proj_example
*CAP
1 io_in[3] 0.00040189
2 *419:io_in[3] 0.00035096
3 *32:11 0.0537924
4 *32:10 0.0534415
5 *32:8 0.00452859
6 *32:7 0.00493048
7 *32:8 *33:8 0.224205
8 *32:11 *34:11 0.326689
9 *1:8 *32:8 0
10 *23:8 *32:8 0.249259
11 *30:15 *32:11 0.00781852
*RES
1 io_in[3] *32:7 7.605 
2 *32:7 *32:8 634.23 
3 *32:8 *32:10 4.5 
4 *32:10 *32:11 852.75 
5 *32:11 *419:io_in[3] 7.155 
*END

*D_NET *33 0.854757
*CONN
*P io_in[4] I
*I *419:io_in[4] I *D user_proj_example
*CAP
1 io_in[4] 0.000469312
2 *419:io_in[4] 0.00483617
3 *33:16 0.00811391
4 *33:11 0.0697713
5 *33:10 0.0664936
6 *33:8 0.00651759
7 *33:7 0.00698691
8 *33:8 *34:8 0.199233
9 *33:8 *36:8 0.00121577
10 *33:8 *50:13 0.00470212
11 *33:11 io_oeb[13] 0.000435568
12 *33:11 *104:10 0.257604
13 *1:8 *33:8 0.0018203
14 *3:8 *33:8 0.00141923
15 *6:19 *33:11 0
16 *23:8 *33:8 0.000933113
17 *32:8 *33:8 0.224205
*RES
1 io_in[4] *33:7 7.425 
2 *33:7 *33:8 616.41 
3 *33:8 *33:10 4.5 
4 *33:10 *33:11 832.95 
5 *33:11 *33:16 23.85 
6 *33:16 *419:io_in[4] 28.665 
*END

*D_NET *34 1.00149
*CONN
*P io_in[5] I
*I *419:io_in[5] I *D user_proj_example
*CAP
1 io_in[5] 0.000358775
2 *419:io_in[5] 0.000297992
3 *34:11 0.00767198
4 *34:10 0.00737399
5 *34:8 0.00268385
6 *34:7 0.00304263
7 *34:8 *35:8 0.173141
8 *34:8 *36:8 0.000472264
9 *34:11 *80:10 0.0169457
10 *1:8 *34:8 0.00410198
11 *30:15 *34:11 0.259473
12 *32:11 *34:11 0.326689
13 *33:8 *34:8 0.199233
*RES
1 io_in[5] *34:7 7.245 
2 *34:7 *34:8 506.97 
3 *34:8 *34:10 4.5 
4 *34:10 *34:11 811.71 
5 *34:11 *419:io_in[5] 6.615 
*END

*D_NET *35 0.949406
*CONN
*P io_in[6] I
*I *419:io_in[6] I *D user_proj_example
*CAP
1 io_in[6] 0.000337217
2 *419:io_in[6] 0
3 *35:11 0.00609947
4 *35:10 0.00609947
5 *35:8 0.0022566
6 *35:7 0.00259382